/*--------------------------------*- C++ -*----------------------------------*\
| =========                 |                                                 |
| \\      /  F ield         | OpenFOAM: The Open Source CFD Toolbox           |
|  \\    /   O peration     | Version:  v2106                                 |
|   \\  /    A nd           | Web:      www.OpenFOAM.com                      |
|    \\/     M anipulation  |                                                 |
\*---------------------------------------------------------------------------*/
FoamFile
{
    version     2.0;
    format      ascii;
    class       dictionary;
    location    "system";
    object      balanceParDict;
}
// * * * * * * * * * * * * * * * * * * * * * * * * * * * * * * * * * * * * * //

numberOfSubdomains 4;

method         hierarchical;// ptscotch; //clsutered //scotch

coeffs
{
    n           (2 2 1);
}
//simpleCoeffs
//{
 //   n               (2 2 1);
   // delta           0.001;
//}

constraints
{
    refinementHistoryMultiDim
    {
        //- Decompose cells such that all cell originating from single cell
        //  end up on same processor
        type    refinementHistoryMultiDim;
    }
}
// ************************************************************************* //
